
     RDKit          3D

 47 47  0  0  0  0  0  0  0  0999 V2000
    7.7214    0.7587   -0.6697 O   0  0  0  0  0  0  0  0  0  0  0  0
    7.2732    0.4579    0.4292 C   0  0  0  0  0  0  0  0  0  0  0  0
    8.0278    0.1719    1.5331 O   0  0  0  0  0  0  0  0  0  0  0  0
    9.4361    0.2676    1.3141 C   0  0  0  0  0  0  0  0  0  0  0  0
    5.8089    0.3412    0.7753 C   0  0  0  0  0  0  0  0  0  0  0  0
    4.9259    0.7851   -0.3887 C   0  0  0  0  0  0  0  0  0  0  0  0
    3.4557    0.6525   -0.0687 C   0  0  0  0  0  0  0  0  0  0  0  0
    2.8044    1.6244    0.7003 C   0  0  0  0  0  0  0  0  0  0  0  0
    1.4437    1.4987    0.9924 C   0  0  0  0  0  0  0  0  0  0  0  0
    0.7117    0.4115    0.5089 C   0  0  0  0  0  0  0  0  0  0  0  0
   -0.6161    0.4070    0.8418 O   0  0  0  0  0  0  0  0  0  0  0  0
   -1.4737   -0.3308   -0.0349 C   0  0  0  0  0  0  0  0  0  0  0  0
   -2.9016    0.1455    0.2444 C   0  0  2  0  0  0  0  0  0  0  0  0
   -3.3212   -0.2135    1.5779 O   0  0  0  0  0  0  0  0  0  0  0  0
   -3.9173   -0.4856   -0.7146 C   0  0  0  0  0  0  0  0  0  0  0  0
   -5.2850   -0.2326   -0.1304 N   0  0  0  0  0  0  0  0  0  0  0  0
   -6.4117   -1.0742   -0.6376 C   0  0  0  0  0  0  0  0  0  0  0  0
   -7.6229   -0.8167    0.2488 C   0  0  0  0  0  0  0  0  0  0  0  0
   -6.7036   -0.7228   -2.0888 C   0  0  0  0  0  0  0  0  0  0  0  0
    1.3590   -0.5731   -0.2371 C   0  0  0  0  0  0  0  0  0  0  0  0
    2.7239   -0.4524   -0.5234 C   0  0  0  0  0  0  0  0  0  0  0  0
    9.7579   -0.4717    0.5709 H   0  0  0  0  0  0  0  0  0  0  0  0
    9.9427    0.0524    2.2620 H   0  0  0  0  0  0  0  0  0  0  0  0
    9.7091    1.2829    0.9980 H   0  0  0  0  0  0  0  0  0  0  0  0
    5.6140    0.9712    1.6510 H   0  0  0  0  0  0  0  0  0  0  0  0
    5.5995   -0.7015    1.0418 H   0  0  0  0  0  0  0  0  0  0  0  0
    5.1417    1.8291   -0.6537 H   0  0  0  0  0  0  0  0  0  0  0  0
    5.1602    0.2014   -1.2897 H   0  0  0  0  0  0  0  0  0  0  0  0
    3.3521    2.4883    1.0743 H   0  0  0  0  0  0  0  0  0  0  0  0
    0.9555    2.2631    1.5914 H   0  0  0  0  0  0  0  0  0  0  0  0
   -1.3823   -1.3997    0.1926 H   0  0  0  0  0  0  0  0  0  0  0  0
   -1.2253   -0.1347   -1.0847 H   0  0  0  0  0  0  0  0  0  0  0  0
   -2.9551    1.2398    0.1906 H   0  0  0  0  0  0  0  0  0  0  0  0
   -2.5696    0.0056    2.1734 H   0  0  0  0  0  0  0  0  0  0  0  0
   -3.8783   -0.0507   -1.7176 H   0  0  0  0  0  0  0  0  0  0  0  0
   -3.7952   -1.5731   -0.7552 H   0  0  0  0  0  0  0  0  0  0  0  0
   -5.1498   -0.4106    0.8861 H   0  0  0  0  0  0  0  0  0  0  0  0
   -5.5134    0.7691   -0.1823 H   0  0  0  0  0  0  0  0  0  0  0  0
   -6.1008   -2.1191   -0.5455 H   0  0  0  0  0  0  0  0  0  0  0  0
   -7.4023   -1.0598    1.2951 H   0  0  0  0  0  0  0  0  0  0  0  0
   -8.4712   -1.4359   -0.0664 H   0  0  0  0  0  0  0  0  0  0  0  0
   -7.9358    0.2333    0.2035 H   0  0  0  0  0  0  0  0  0  0  0  0
   -7.5714   -1.2851   -2.4523 H   0  0  0  0  0  0  0  0  0  0  0  0
   -5.8575   -0.9765   -2.7354 H   0  0  0  0  0  0  0  0  0  0  0  0
   -6.9178    0.3453   -2.2108 H   0  0  0  0  0  0  0  0  0  0  0  0
    0.8396   -1.4543   -0.6000 H   0  0  0  0  0  0  0  0  0  0  0  0
    3.2149   -1.2290   -1.1088 H   0  0  0  0  0  0  0  0  0  0  0  0
  1  2  2  0
  2  3  1  0
  3  4  1  0
  2  5  1  0
  5  6  1  0
  6  7  1  0
  7  8  2  0
  8  9  1  0
  9 10  2  0
 10 11  1  0
 11 12  1  0
 12 13  1  0
 13 14  1  0
 13 15  1  0
 15 16  1  0
 16 17  1  0
 17 18  1  0
 17 19  1  0
 10 20  1  0
 20 21  2  0
 21  7  1  0
  4 22  1  0
  4 23  1  0
  4 24  1  0
  5 25  1  0
  5 26  1  0
  6 27  1  0
  6 28  1  0
  8 29  1  0
  9 30  1  0
 12 31  1  0
 12 32  1  0
 13 33  1  1
 14 34  1  0
 15 35  1  0
 15 36  1  0
 16 37  1  0
 16 38  1  0
 17 39  1  0
 18 40  1  0
 18 41  1  0
 18 42  1  0
 19 43  1  0
 19 44  1  0
 19 45  1  0
 20 46  1  0
 21 47  1  0
M  CHG  1  16   1
A    1
-0.49819799999999997
A    2
0.60284899999999997
A    3
-0.262845
A    4
-0.118158
A    5
-0.26798499999999997
A    6
-0.15610199999999999
A    7
0.091234999999999997
A    8
-0.110017
A    9
-0.199133
A   10
0.24464900000000001
A   11
-0.25051200000000001
A   12
-0.014066
A   13
0.18563299999999999
A   14
-0.54733299999999996
A   15
-0.074781
A   16
-0.22014900000000001
A   17
0.23395099999999999
A   18
-0.408499
A   19
-0.40598600000000001
A   20
-0.23672899999999999
A   21
-0.11012
A   22
0.10000199999999999
A   23
0.10299700000000001
A   24
0.099862999999999993
A   25
0.111777
A   26
0.115006
A   27
0.093150999999999998
A   28
0.093872999999999998
A   29
0.10857700000000001
A   30
0.12055399999999999
A   31
0.086652000000000007
A   32
0.070370000000000002
A   33
0.052873000000000003
A   34
0.39689799999999997
A   35
0.11195099999999999
A   36
0.119801
A   37
0.309699
A   38
0.30385899999999999
A   39
0.069887000000000005
A   40
0.13056200000000001
A   41
0.16055800000000001
A   42
0.13270799999999999
A   43
0.16343199999999999
A   44
0.12559100000000001
A   45
0.13191800000000001
A   46
0.100856
A   47
0.10888299999999999
M  END
$$$$
